version 2
1
9
.tran 1u 20m{return}{return}{return}.kicad adjustpaths{return}.save all{return}.probe alli
2
1
V(SignalOut)
 
1
V(Vin)
 
